
**** 11/03/08 22:00:19 ************** PSpice Lite (Mar 2000) *****************

 ** Profile: "SCHEMATIC1-bias"  [ C:\Users\Bertan\Desktop\o.c\oncalisma-SCHEMATIC1-bias.sim ] 


 ****     CIRCUIT DESCRIPTION


******************************************************************************




** Creating circuit file "oncalisma-SCHEMATIC1-bias.sim.cir" 
** WARNING: THIS AUTOMATICALLY GENERATED FILE MAY BE OVERWRITTEN BY SUBSEQUENT SIMULATIONS

*Libraries: 
* Local Libraries :
* From [PSPICE NETLIST] section of C:\Program Files\OrcadLite\PSpice\PSpice.ini file:
.lib "D:\DERSLER\5.YARIYIL\EEM 311 LAB\deney 4\deney4\jfet.lib" 
.lib "D:\DERSLER\5.YARIYIL\EEM 311 LAB\deney 4\deney4\jfet.lib" 
.lib "D:\DERSLER\5.YARIYIL\EEM 311 LAB\deney 3\deney3\cd4007.lib" 
.lib "nom.lib" 

*Analysis directives: 
.DC LIN V_V2 0 8 0.5 
.PROBE V(*) I(*) W(*) D(*) NOISE(*) 
.INC ".\oncalisma-SCHEMATIC1.net" 



**** INCLUDING oncalisma-SCHEMATIC1.net ****
* source ONCALISMA
R_R1         N00243 N000030  1k  
V_V1         N000030 0 5Vdc
V_V2         N02904 0 5Vdc
M_M1         N00243 N00243 0 0 nnMOS           
M_M2         N02904 N00243 0 0 nnMOS           

**** RESUMING oncalisma-SCHEMATIC1-bias.sim.cir ****
.END

**** 11/03/08 22:00:19 ************** PSpice Lite (Mar 2000) *****************

 ** Profile: "SCHEMATIC1-bias"  [ C:\Users\Bertan\Desktop\o.c\oncalisma-SCHEMATIC1-bias.sim ] 


 ****     MOSFET MODEL PARAMETERS


******************************************************************************




               nnMOS           
               NMOS            
       LEVEL    2            
           L  100.000000E-06 
           W  100.000000E-06 
         VTO    1.4          
          KP  600.000000E-06 
       GAMMA    0            
         PHI     .6          
      LAMBDA    5.000000E-03 
          IS   10.000000E-15 
          JS    0            
          PB     .8          
        PBSW     .8          
          CJ    0            
        CJSW    0            
        CGSO    0            
        CGDO    0            
        CGBO    0            
         TOX  100.000000E-09 
          XJ    0            
       UCRIT   10.000000E+03 
      DIOMOD    1            
         VFB    0            
        LETA    0            
        WETA    0            
          U0    0            
        TEMP    0            
         VDD    0            
       XPART    0            



          JOB CONCLUDED

          TOTAL JOB TIME             .02
