
**** 11/29/08 17:04:33 ************** PSpice Lite (Mar 2000) *****************

 ** Profile: "SCHEMATIC1-bias"  [ C:\Users\Bertan\Desktop\.. 7\oc-schematic1-bias.sim ] 


 ****     CIRCUIT DESCRIPTION


******************************************************************************




** Creating circuit file "oc-schematic1-bias.sim.cir" 
** WARNING: THIS AUTOMATICALLY GENERATED FILE MAY BE OVERWRITTEN BY SUBSEQUENT SIMULATIONS

*Libraries: 
* Local Libraries :
* From [PSPICE NETLIST] section of C:\Windows\pspice.ini file:

*Analysis directives: 
.PROBE V(*) I(*) W(*) D(*) NOISE(*) 
.INC ".\oc-SCHEMATIC1.net" 



**** INCLUDING oc-SCHEMATIC1.net ****
* source OC
R_Rref         0 N00058  4.95k  
R_Rc1         N000051 N00032  9.7k  
R_Rc2         N000071 N00032  9.7k  
R_Re1         N00042 N00035  250  
R_Re2         N00045 N00042  250  
R_Rbb         N000131 N00075  2.2k  
R_Rba         N000151 N00075  2.2k  
Q_Q1         N000051 0 N00035 Q2N3904
Q_Q2         N000071 0 N00045 Q2N3904
Q_Qb         N00042 N00058 N000131 Q2N3904
Q_Qa         N00058 N00058 N000151 Q2N3904
V_Vcc         N00032 0 15Vdc
V_Vee         0 N00075 15Vdc

**** RESUMING oc-schematic1-bias.sim.cir ****
.END

ERROR -- Model Q2N3904 used by Q_Q1 is undefined
ERROR -- Model Q2N3904 used by Q_Q2 is undefined
ERROR -- Model Q2N3904 used by Q_Qb is undefined
ERROR -- Model Q2N3904 used by Q_Qa is undefined