
**** 10/21/08 01:46:33 ************** PSpice Lite (Mar 2000) *****************

 ** Profile: "SCHEMATIC1-bias"  [ C:\Users\Bertan\Desktop\. 3\o.c-SCHEMATIC1-bias.sim ] 


 ****     CIRCUIT DESCRIPTION


******************************************************************************




** Creating circuit file "o.c-SCHEMATIC1-bias.sim.cir" 
** WARNING: THIS AUTOMATICALLY GENERATED FILE MAY BE OVERWRITTEN BY SUBSEQUENT SIMULATIONS

*Libraries: 
* Local Libraries :
.LIB "nom.lib" 
* From [PSPICE NETLIST] section of C:\Program Files\OrcadLite\PSpice\PSpice.ini file:
.lib "nom.lib" 

*Analysis directives: 
.PROBE V(*) I(*) W(*) D(*) NOISE(*) 
.INC ".\o.c-SCHEMATIC1.net" 



**** INCLUDING o.c-SCHEMATIC1.net ****
* source O.C
M_M1         N00915 N00184 N000170 N000170 nnMOS           
R_R1         N00184 N00425  68k  
R_R2         0 N00184  20k  
R_Rs         0 N000170  20k  
R_Rd         N00915 N00425  178k  
V_V1         N00425 0 15Vdc

**** RESUMING o.c-SCHEMATIC1-bias.sim.cir ****
.END

ERROR -- Model nnMOS used by M_M1 is undefined