
**** 10/21/08 02:15:46 ************** PSpice Lite (Mar 2000) *****************

 ** Profile: "SCHEMATIC1-bias simulation"  [ C:\Users\Bertan\Desktop\. 3\o.c-SCHEMATIC1-bias simulation.sim ] 


 ****     CIRCUIT DESCRIPTION


******************************************************************************




** Creating circuit file "o.c-SCHEMATIC1-bias simulation.sim.cir" 
** WARNING: THIS AUTOMATICALLY GENERATED FILE MAY BE OVERWRITTEN BY SUBSEQUENT SIMULATIONS

*Libraries: 
* Local Libraries :
.LIB "nom.lib" 
* From [PSPICE NETLIST] section of C:\Program Files\OrcadLite\PSpice\PSpice.ini file:
.lib "D:\DERSLER\5.YARIYIL\EEM 311 LAB\deney 3\deney3\cd4007.lib" 
.lib "nom.lib" 

*Analysis directives: 
.PROBE V(*) I(*) W(*) D(*) NOISE(*) 
.INC ".\o.c-SCHEMATIC1.net" 



**** INCLUDING o.c-SCHEMATIC1.net ****
* source O.C
M_M1         N00915 N00184 N000170 N000170 nnMOS           
R_R1         N00184 N00425  68k  
C_Cd         N00915 0  1uF  
R_R2         0 N00184  20k  
R_Rs         0 N000170  20k  
C_Cg         N02949 N00184  1uF  
R_Rd         N00915 N00425  178k  
V_V4         N02949 0  
+SIN 0 50mV 1kHz 0 0 0
C_Cs         0 N00489  10uF  
V_V1         N00425 0 15Vdc

**** RESUMING "o.c-SCHEMATIC1-bias simulation.sim.cir" ****
.END

ERROR -- Less than 2 connections at node N00489
ERROR -- Node N00489 is floating