
**** 12/15/08 20:11:31 ************** PSpice Lite (Mar 2000) *****************

 ** Profile: "SCHEMATIC1-time domain"  [ C:\Users\Bertan\Desktop\n alma 8\oncalisma8-SCHEMATIC1-time domain.sim ] 


 ****     CIRCUIT DESCRIPTION


******************************************************************************




** Creating circuit file "oncalisma8-SCHEMATIC1-time domain.sim.cir" 
** WARNING: THIS AUTOMATICALLY GENERATED FILE MAY BE OVERWRITTEN BY SUBSEQUENT SIMULATIONS

*Libraries: 
* Local Libraries :
* From [PSPICE NETLIST] section of C:\Windows\pspice.ini file:
.lib "C:\Program Files\OrcadLite\Capture\Library\PSpice\eval.lib" 
.lib "D:\DERSLER\5.YARIYIL\EEM 311 LAB Elektronik II\deney 4\deney4\jfet.lib" 
.lib "D:\DERSLER\5.YARIYIL\EEM 311 LAB Elektronik II\deney 3\deney3\cd4007.lib" 

*Analysis directives: 
.TRAN  0 5ms 0 
.PROBE V(*) I(*) W(*) D(*) NOISE(*) 
.INC ".\oncalisma8-SCHEMATIC1.net" 



**** INCLUDING oncalisma8-SCHEMATIC1.net ****
* source ONCALISMA8
R_R1         N00224 N00274  8.2k  
R_Rc         N00195 N00274  6.3k  
R_R2         0 N00224  3.9k  
R_RE         0 N00763  3.3k  
C_C1         N01728 N00224  10uF  
R_RL         0 N00681  3.9k  
V_V2         N001471 0  
+SIN 0 10mV 1kHz 0 0 0
R_Rs         N001471 N01728  3k  
C_CE         0 N00763  10uF  
Q_Q1         N00195 N00224 N00763 Q2N3904
V_Vcc         N00274 0 12Vdc
C_C2         N00666 N00681  10uF  

**** RESUMING "oncalisma8-SCHEMATIC1-time domain.sim.cir" ****
.END

ERROR -- Less than 2 connections at node N00666
ERROR -- Node N00666 is floating