
**** 10/27/08 21:36:03 ************** PSpice Lite (Mar 2000) *****************

 ** Profile: "SCHEMATIC1-bias"  [ C:\Users\Bertan\Desktop\o.c\bias-SCHEMATIC1-bias.sim ] 


 ****     CIRCUIT DESCRIPTION


******************************************************************************




** Creating circuit file "bias-SCHEMATIC1-bias.sim.cir" 
** WARNING: THIS AUTOMATICALLY GENERATED FILE MAY BE OVERWRITTEN BY SUBSEQUENT SIMULATIONS

*Libraries: 
* Local Libraries :
* From [PSPICE NETLIST] section of C:\Program Files\OrcadLite\PSpice\PSpice.ini file:
.lib "D:\DERSLER\5.YARIYIL\EEM 311 LAB\deney 4\deney4\jfet.lib" 
.lib "D:\DERSLER\5.YARIYIL\EEM 311 LAB\deney 3\deney3\cd4007.lib" 
.lib "nom.lib" 

*Analysis directives: 
.PROBE V(*) I(*) W(*) D(*) NOISE(*) 
.INC ".\bias-SCHEMATIC1.net" 



**** INCLUDING bias-SCHEMATIC1.net ****
* source BIAS
J_J1         N00660 N00976 N00588 J2N4860 
R_Rd         N00660 N01068  1k  
R_R1         N01145 N01068  30k  
R_Rc         N000731 N01068  1k  
R_Re         N04103 N04074  2.2k  
Q_Q1         N000731 N01145 N04074 Q2N3904
R_R2         0 N01145  47k  
R_Rs         0 N00588  330  
V_V1         N01068 0 12Vdc
R_Rg         0 N00976  1M  

**** RESUMING bias-SCHEMATIC1-bias.sim.cir ****
.END

ERROR -- Less than 2 connections at node N04103